 INFO
nunit      1    1    1
unit   cell
celltype   primcell
shape   parapipedal
 END_INFO
 DIM-GROUP
           3           1
 PRIMVEC
    9.1943513310   -0.0000648270    0.0000000000
   -4.5972318440    7.9625094920    0.0000000000
    0.0000000000    0.0000000000   18.1049300050
 CONVVEC
    9.1943513310   -0.0000648270    0.0000000000
   -4.5972318440    7.9625094920    0.0000000000
    0.0000000000    0.0000000000   18.1049300050
 PRIMCOORD
          26           1
 42      1.5316876390     0.8998040650    11.1534982020
 16      0.0392398190     1.8179476410    12.7103729280
 16     -0.0211205680     1.7778244890     9.6083539850
 42      0.0458249900     3.5574675030    11.1263767300
 16     -1.4639488410     4.4215400580    12.7103100110
 16     -1.5287802710     4.3893104060     9.6082329070
 42     -1.5128979420     6.1730613540    11.1534090060
 16     -3.0655170350     7.0694664400    12.6938339610
 16     -3.0655841220     7.0695051500     9.6139382340
 42      4.5969734720     0.8766414630    11.1908636540
 16      3.0241859100     1.8178225910    12.7104002870
 16      3.0844531910     1.7778161370     9.6083035630
 42      3.0176091190     3.5573719360    11.1264435680
 16      1.5317857100     4.4152123550     9.5595634300
 42      1.5316343470     6.1309646960    11.1263767630
 16      0.0284386890     7.0064311300    12.7103097710
 16      0.0239347160     7.0786911230     9.6082328680
 42      7.6607139160     0.8766740360    11.1909574320
 16      6.1287897520     1.7611309640    12.7527310550
 16      6.1288782830     1.7610801740     9.6507931310
 42      6.1288720410     3.5299676480    11.1908639470
 16      4.5273912790     4.4214509760    12.7104003770
 16      4.5921719070     4.3892610080     9.6083039420
 42      4.5761696430     6.1730015490    11.1534982540
 16      3.0348099800     7.0064274580    12.7103728990
 16      3.0393774200     7.0787627340     9.6083542320
 CONVCOORD
          26           1
 42      1.5316876390     0.8998040650    11.1534982020
 16      0.0392398190     1.8179476410    12.7103729280
 16     -0.0211205680     1.7778244890     9.6083539850
 42      0.0458249900     3.5574675030    11.1263767300
 16     -1.4639488410     4.4215400580    12.7103100110
 16     -1.5287802710     4.3893104060     9.6082329070
 42     -1.5128979420     6.1730613540    11.1534090060
 16     -3.0655170350     7.0694664400    12.6938339610
 16     -3.0655841220     7.0695051500     9.6139382340
 42      4.5969734720     0.8766414630    11.1908636540
 16      3.0241859100     1.8178225910    12.7104002870
 16      3.0844531910     1.7778161370     9.6083035630
 42      3.0176091190     3.5573719360    11.1264435680
 16      1.5317857100     4.4152123550     9.5595634300
 42      1.5316343470     6.1309646960    11.1263767630
 16      0.0284386890     7.0064311300    12.7103097710
 16      0.0239347160     7.0786911230     9.6082328680
 42      7.6607139160     0.8766740360    11.1909574320
 16      6.1287897520     1.7611309640    12.7527310550
 16      6.1288782830     1.7610801740     9.6507931310
 42      6.1288720410     3.5299676480    11.1908639470
 16      4.5273912790     4.4214509760    12.7104003770
 16      4.5921719070     4.3892610080     9.6083039420
 42      4.5761696430     6.1730015490    11.1534982540
 16      3.0348099800     7.0064274580    12.7103728990
 16      3.0393774200     7.0787627340     9.6083542320
 RECIP-PRIMVEC
    0.1087628735    0.0627952966   -0.0000000000

    0.0000008855    0.1255890586   -0.0000000000

   -0.0000000000   -0.0000000000    0.0552335745

 RECIP-CONVVEC
    0.1087628735    0.0627952966   -0.0000000000

    0.0000008855    0.1255890586   -0.0000000000

   -0.0000000000   -0.0000000000    0.0552335745

 WIGNER-SEITZ-PRIMCELL
           4
  0.7489214E-04 -0.5308340E+01  0.9052465E+01   0.5000061E+00 -0.8660219E+00  0.7393328E-16
  0.7489214E-04 -0.5308340E+01 -0.9052465E+01   0.5000061E+00 -0.8660219E+00  0.7393328E-16
  0.4597157E+01 -0.2654170E+01 -0.9052465E+01   0.5000061E+00 -0.8660219E+00  0.7393328E-16
  0.4597157E+01 -0.2654170E+01  0.9052465E+01   0.5000061E+00 -0.8660219E+00  0.7393328E-16
           4
 -0.4597194E+01 -0.2654105E+01  0.9052465E+01  -0.5000000E+00 -0.8660254E+00  0.3696528E-16
 -0.4597194E+01 -0.2654105E+01 -0.9052465E+01  -0.5000000E+00 -0.8660254E+00  0.3696528E-16
  0.7489214E-04 -0.5308340E+01 -0.9052465E+01  -0.5000000E+00 -0.8660254E+00  0.3696528E-16
  0.7489214E-04 -0.5308340E+01  0.9052465E+01  -0.5000000E+00 -0.8660254E+00  0.3696528E-16
           4
  0.4597157E+01 -0.2654170E+01 -0.9052465E+01   0.1000000E+01 -0.7050742E-05 -0.4230496E-21
  0.4597194E+01  0.2654105E+01 -0.9052465E+01   0.1000000E+01 -0.7050742E-05 -0.4230496E-21
  0.4597194E+01  0.2654105E+01  0.9052465E+01   0.1000000E+01 -0.7050742E-05 -0.4230496E-21
  0.4597157E+01 -0.2654170E+01  0.9052465E+01   0.1000000E+01 -0.7050742E-05 -0.4230496E-21
           6
 -0.4597194E+01 -0.2654105E+01 -0.9052465E+01   0.2911765E-15 -0.3181188E-15 -0.1000000E+01
 -0.4597157E+01  0.2654170E+01 -0.9052465E+01   0.2911765E-15 -0.3181188E-15 -0.1000000E+01
 -0.7489214E-04  0.5308340E+01 -0.9052465E+01   0.2911765E-15 -0.3181188E-15 -0.1000000E+01
  0.4597194E+01  0.2654105E+01 -0.9052465E+01   0.2911765E-15 -0.3181188E-15 -0.1000000E+01
  0.4597157E+01 -0.2654170E+01 -0.9052465E+01   0.2911765E-15 -0.3181188E-15 -0.1000000E+01
  0.7489214E-04 -0.5308340E+01 -0.9052465E+01   0.2911765E-15 -0.3181188E-15 -0.1000000E+01
           6
  0.7489214E-04 -0.5308340E+01  0.9052465E+01   0.5823530E-15 -0.2798113E-15  0.1000000E+01
  0.4597157E+01 -0.2654170E+01  0.9052465E+01   0.5823530E-15 -0.2798113E-15  0.1000000E+01
  0.4597194E+01  0.2654105E+01  0.9052465E+01   0.5823530E-15 -0.2798113E-15  0.1000000E+01
 -0.7489214E-04  0.5308340E+01  0.9052465E+01   0.5823530E-15 -0.2798113E-15  0.1000000E+01
 -0.4597157E+01  0.2654170E+01  0.9052465E+01   0.5823530E-15 -0.2798113E-15  0.1000000E+01
 -0.4597194E+01 -0.2654105E+01  0.9052465E+01   0.5823530E-15 -0.2798113E-15  0.1000000E+01
           4
 -0.4597157E+01  0.2654170E+01  0.9052465E+01  -0.1000000E+01  0.7050742E-05  0.9871157E-21
 -0.4597157E+01  0.2654170E+01 -0.9052465E+01  -0.1000000E+01  0.7050742E-05  0.9871157E-21
 -0.4597194E+01 -0.2654105E+01 -0.9052465E+01  -0.1000000E+01  0.7050742E-05  0.9871157E-21
 -0.4597194E+01 -0.2654105E+01  0.9052465E+01  -0.1000000E+01  0.7050742E-05  0.9871157E-21
           4
  0.4597194E+01  0.2654105E+01 -0.9052465E+01   0.5000000E+00  0.8660254E+00 -0.1801618E-16
 -0.7489214E-04  0.5308340E+01 -0.9052465E+01   0.5000000E+00  0.8660254E+00 -0.1801618E-16
 -0.7489214E-04  0.5308340E+01  0.9052465E+01   0.5000000E+00  0.8660254E+00 -0.1801618E-16
  0.4597194E+01  0.2654105E+01  0.9052465E+01   0.5000000E+00  0.8660254E+00 -0.1801618E-16
           4
 -0.4597157E+01  0.2654170E+01  0.9052465E+01  -0.5000061E+00  0.8660219E+00 -0.1261154E-15
 -0.7489214E-04  0.5308340E+01  0.9052465E+01  -0.5000061E+00  0.8660219E+00 -0.1261154E-15
 -0.7489214E-04  0.5308340E+01 -0.9052465E+01  -0.5000061E+00  0.8660219E+00 -0.1261154E-15
 -0.4597157E+01  0.2654170E+01 -0.9052465E+01  -0.5000061E+00  0.8660219E+00 -0.1261154E-15
 WIGNER-SEITZ-PRIMCELL_END
 WIGNER-SEITZ-CONVCELL
           4
  0.7489214E-04 -0.5308340E+01  0.9052465E+01   0.5000061E+00 -0.8660219E+00  0.7393328E-16
  0.7489214E-04 -0.5308340E+01 -0.9052465E+01   0.5000061E+00 -0.8660219E+00  0.7393328E-16
  0.4597157E+01 -0.2654170E+01 -0.9052465E+01   0.5000061E+00 -0.8660219E+00  0.7393328E-16
  0.4597157E+01 -0.2654170E+01  0.9052465E+01   0.5000061E+00 -0.8660219E+00  0.7393328E-16
           4
 -0.4597194E+01 -0.2654105E+01  0.9052465E+01  -0.5000000E+00 -0.8660254E+00  0.3696528E-16
 -0.4597194E+01 -0.2654105E+01 -0.9052465E+01  -0.5000000E+00 -0.8660254E+00  0.3696528E-16
  0.7489214E-04 -0.5308340E+01 -0.9052465E+01  -0.5000000E+00 -0.8660254E+00  0.3696528E-16
  0.7489214E-04 -0.5308340E+01  0.9052465E+01  -0.5000000E+00 -0.8660254E+00  0.3696528E-16
           4
  0.4597157E+01 -0.2654170E+01 -0.9052465E+01   0.1000000E+01 -0.7050742E-05 -0.4230496E-21
  0.4597194E+01  0.2654105E+01 -0.9052465E+01   0.1000000E+01 -0.7050742E-05 -0.4230496E-21
  0.4597194E+01  0.2654105E+01  0.9052465E+01   0.1000000E+01 -0.7050742E-05 -0.4230496E-21
  0.4597157E+01 -0.2654170E+01  0.9052465E+01   0.1000000E+01 -0.7050742E-05 -0.4230496E-21
           6
 -0.4597194E+01 -0.2654105E+01 -0.9052465E+01   0.2911765E-15 -0.3181188E-15 -0.1000000E+01
 -0.4597157E+01  0.2654170E+01 -0.9052465E+01   0.2911765E-15 -0.3181188E-15 -0.1000000E+01
 -0.7489214E-04  0.5308340E+01 -0.9052465E+01   0.2911765E-15 -0.3181188E-15 -0.1000000E+01
  0.4597194E+01  0.2654105E+01 -0.9052465E+01   0.2911765E-15 -0.3181188E-15 -0.1000000E+01
  0.4597157E+01 -0.2654170E+01 -0.9052465E+01   0.2911765E-15 -0.3181188E-15 -0.1000000E+01
  0.7489214E-04 -0.5308340E+01 -0.9052465E+01   0.2911765E-15 -0.3181188E-15 -0.1000000E+01
           6
  0.7489214E-04 -0.5308340E+01  0.9052465E+01   0.5823530E-15 -0.2798113E-15  0.1000000E+01
  0.4597157E+01 -0.2654170E+01  0.9052465E+01   0.5823530E-15 -0.2798113E-15  0.1000000E+01
  0.4597194E+01  0.2654105E+01  0.9052465E+01   0.5823530E-15 -0.2798113E-15  0.1000000E+01
 -0.7489214E-04  0.5308340E+01  0.9052465E+01   0.5823530E-15 -0.2798113E-15  0.1000000E+01
 -0.4597157E+01  0.2654170E+01  0.9052465E+01   0.5823530E-15 -0.2798113E-15  0.1000000E+01
 -0.4597194E+01 -0.2654105E+01  0.9052465E+01   0.5823530E-15 -0.2798113E-15  0.1000000E+01
           4
 -0.4597157E+01  0.2654170E+01  0.9052465E+01  -0.1000000E+01  0.7050742E-05  0.9871157E-21
 -0.4597157E+01  0.2654170E+01 -0.9052465E+01  -0.1000000E+01  0.7050742E-05  0.9871157E-21
 -0.4597194E+01 -0.2654105E+01 -0.9052465E+01  -0.1000000E+01  0.7050742E-05  0.9871157E-21
 -0.4597194E+01 -0.2654105E+01  0.9052465E+01  -0.1000000E+01  0.7050742E-05  0.9871157E-21
           4
  0.4597194E+01  0.2654105E+01 -0.9052465E+01   0.5000000E+00  0.8660254E+00 -0.1801618E-16
 -0.7489214E-04  0.5308340E+01 -0.9052465E+01   0.5000000E+00  0.8660254E+00 -0.1801618E-16
 -0.7489214E-04  0.5308340E+01  0.9052465E+01   0.5000000E+00  0.8660254E+00 -0.1801618E-16
  0.4597194E+01  0.2654105E+01  0.9052465E+01   0.5000000E+00  0.8660254E+00 -0.1801618E-16
           4
 -0.4597157E+01  0.2654170E+01  0.9052465E+01  -0.5000061E+00  0.8660219E+00 -0.1261154E-15
 -0.7489214E-04  0.5308340E+01  0.9052465E+01  -0.5000061E+00  0.8660219E+00 -0.1261154E-15
 -0.7489214E-04  0.5308340E+01 -0.9052465E+01  -0.5000061E+00  0.8660219E+00 -0.1261154E-15
 -0.4597157E+01  0.2654170E+01 -0.9052465E+01  -0.5000061E+00  0.8660219E+00 -0.1261154E-15
 WIGNER-SEITZ-CONVCELL_END
 BRILLOUIN-ZONE-PRIMCELL
           4
 -0.7250858E-01 -0.1022980E-05 -0.2761679E-01  -0.8660219E+00 -0.5000061E+00 -0.0000000E+00
 -0.3625429E-01 -0.6279427E-01 -0.2761679E-01  -0.8660219E+00 -0.5000061E+00 -0.0000000E+00
 -0.3625429E-01 -0.6279427E-01  0.2761679E-01  -0.8660219E+00 -0.5000061E+00 -0.0000000E+00
 -0.7250858E-01 -0.1022980E-05  0.2761679E-01  -0.8660219E+00 -0.5000061E+00 -0.0000000E+00
           4
 -0.3625341E-01  0.6279478E-01  0.2761679E-01  -0.8660254E+00  0.5000000E+00  0.8130771E-16
 -0.3625341E-01  0.6279478E-01 -0.2761679E-01  -0.8660254E+00  0.5000000E+00  0.8130771E-16
 -0.7250858E-01 -0.1022980E-05 -0.2761679E-01  -0.8660254E+00  0.5000000E+00  0.8130771E-16
 -0.7250858E-01 -0.1022980E-05  0.2761679E-01  -0.8660254E+00  0.5000000E+00  0.8130771E-16
           4
 -0.3625429E-01 -0.6279427E-01 -0.2761679E-01  -0.7050742E-05 -0.1000000E+01 -0.1087985E-15
  0.3625341E-01 -0.6279478E-01 -0.2761679E-01  -0.7050742E-05 -0.1000000E+01 -0.1087985E-15
  0.3625341E-01 -0.6279478E-01  0.2761679E-01  -0.7050742E-05 -0.1000000E+01 -0.1087985E-15
 -0.3625429E-01 -0.6279427E-01  0.2761679E-01  -0.7050742E-05 -0.1000000E+01 -0.1087985E-15
           6
 -0.3625429E-01 -0.6279427E-01 -0.2761679E-01  -0.9524754E-16  0.0000000E+00 -0.1000000E+01
 -0.7250858E-01 -0.1022980E-05 -0.2761679E-01  -0.9524754E-16  0.0000000E+00 -0.1000000E+01
 -0.3625341E-01  0.6279478E-01 -0.2761679E-01  -0.9524754E-16  0.0000000E+00 -0.1000000E+01
  0.3625429E-01  0.6279427E-01 -0.2761679E-01  -0.9524754E-16  0.0000000E+00 -0.1000000E+01
  0.7250858E-01  0.1022980E-05 -0.2761679E-01  -0.9524754E-16  0.0000000E+00 -0.1000000E+01
  0.3625341E-01 -0.6279478E-01 -0.2761679E-01  -0.9524754E-16  0.0000000E+00 -0.1000000E+01
           6
  0.3625341E-01 -0.6279478E-01  0.2761679E-01  -0.0000000E+00  0.4762377E-16  0.1000000E+01
  0.7250858E-01  0.1022980E-05  0.2761679E-01  -0.0000000E+00  0.4762377E-16  0.1000000E+01
  0.3625429E-01  0.6279427E-01  0.2761679E-01  -0.0000000E+00  0.4762377E-16  0.1000000E+01
 -0.3625341E-01  0.6279478E-01  0.2761679E-01  -0.0000000E+00  0.4762377E-16  0.1000000E+01
 -0.7250858E-01 -0.1022980E-05  0.2761679E-01  -0.0000000E+00  0.4762377E-16  0.1000000E+01
 -0.3625429E-01 -0.6279427E-01  0.2761679E-01  -0.0000000E+00  0.4762377E-16  0.1000000E+01
           4
 -0.3625341E-01  0.6279478E-01  0.2761679E-01   0.7050742E-05  0.1000000E+01  0.2175988E-15
  0.3625429E-01  0.6279427E-01  0.2761679E-01   0.7050742E-05  0.1000000E+01  0.2175988E-15
  0.3625429E-01  0.6279427E-01 -0.2761679E-01   0.7050742E-05  0.1000000E+01  0.2175988E-15
 -0.3625341E-01  0.6279478E-01 -0.2761679E-01   0.7050742E-05  0.1000000E+01  0.2175988E-15
           4
  0.3625341E-01 -0.6279478E-01  0.2761679E-01   0.8660254E+00 -0.5000000E+00 -0.3248541E-15
  0.3625341E-01 -0.6279478E-01 -0.2761679E-01   0.8660254E+00 -0.5000000E+00 -0.3248541E-15
  0.7250858E-01  0.1022980E-05 -0.2761679E-01   0.8660254E+00 -0.5000000E+00 -0.3248541E-15
  0.7250858E-01  0.1022980E-05  0.2761679E-01   0.8660254E+00 -0.5000000E+00 -0.3248541E-15
           4
  0.7250858E-01  0.1022980E-05  0.2761679E-01   0.8660219E+00  0.5000061E+00  0.1082887E-15
  0.7250858E-01  0.1022980E-05 -0.2761679E-01   0.8660219E+00  0.5000061E+00  0.1082887E-15
  0.3625429E-01  0.6279427E-01 -0.2761679E-01   0.8660219E+00  0.5000061E+00  0.1082887E-15
  0.3625429E-01  0.6279427E-01  0.2761679E-01   0.8660219E+00  0.5000061E+00  0.1082887E-15
 BRILLOUIN-ZONE-PRIMCELL_END
 BRILLOUIN-ZONE-CONVCELL
           4
 -0.7250858E-01 -0.1022980E-05 -0.2761679E-01  -0.8660219E+00 -0.5000061E+00 -0.0000000E+00
 -0.3625429E-01 -0.6279427E-01 -0.2761679E-01  -0.8660219E+00 -0.5000061E+00 -0.0000000E+00
 -0.3625429E-01 -0.6279427E-01  0.2761679E-01  -0.8660219E+00 -0.5000061E+00 -0.0000000E+00
 -0.7250858E-01 -0.1022980E-05  0.2761679E-01  -0.8660219E+00 -0.5000061E+00 -0.0000000E+00
           4
 -0.3625341E-01  0.6279478E-01  0.2761679E-01  -0.8660254E+00  0.5000000E+00  0.8130771E-16
 -0.3625341E-01  0.6279478E-01 -0.2761679E-01  -0.8660254E+00  0.5000000E+00  0.8130771E-16
 -0.7250858E-01 -0.1022980E-05 -0.2761679E-01  -0.8660254E+00  0.5000000E+00  0.8130771E-16
 -0.7250858E-01 -0.1022980E-05  0.2761679E-01  -0.8660254E+00  0.5000000E+00  0.8130771E-16
           4
 -0.3625429E-01 -0.6279427E-01 -0.2761679E-01  -0.7050742E-05 -0.1000000E+01 -0.1087985E-15
  0.3625341E-01 -0.6279478E-01 -0.2761679E-01  -0.7050742E-05 -0.1000000E+01 -0.1087985E-15
  0.3625341E-01 -0.6279478E-01  0.2761679E-01  -0.7050742E-05 -0.1000000E+01 -0.1087985E-15
 -0.3625429E-01 -0.6279427E-01  0.2761679E-01  -0.7050742E-05 -0.1000000E+01 -0.1087985E-15
           6
 -0.3625429E-01 -0.6279427E-01 -0.2761679E-01  -0.9524754E-16  0.0000000E+00 -0.1000000E+01
 -0.7250858E-01 -0.1022980E-05 -0.2761679E-01  -0.9524754E-16  0.0000000E+00 -0.1000000E+01
 -0.3625341E-01  0.6279478E-01 -0.2761679E-01  -0.9524754E-16  0.0000000E+00 -0.1000000E+01
  0.3625429E-01  0.6279427E-01 -0.2761679E-01  -0.9524754E-16  0.0000000E+00 -0.1000000E+01
  0.7250858E-01  0.1022980E-05 -0.2761679E-01  -0.9524754E-16  0.0000000E+00 -0.1000000E+01
  0.3625341E-01 -0.6279478E-01 -0.2761679E-01  -0.9524754E-16  0.0000000E+00 -0.1000000E+01
           6
  0.3625341E-01 -0.6279478E-01  0.2761679E-01  -0.0000000E+00  0.4762377E-16  0.1000000E+01
  0.7250858E-01  0.1022980E-05  0.2761679E-01  -0.0000000E+00  0.4762377E-16  0.1000000E+01
  0.3625429E-01  0.6279427E-01  0.2761679E-01  -0.0000000E+00  0.4762377E-16  0.1000000E+01
 -0.3625341E-01  0.6279478E-01  0.2761679E-01  -0.0000000E+00  0.4762377E-16  0.1000000E+01
 -0.7250858E-01 -0.1022980E-05  0.2761679E-01  -0.0000000E+00  0.4762377E-16  0.1000000E+01
 -0.3625429E-01 -0.6279427E-01  0.2761679E-01  -0.0000000E+00  0.4762377E-16  0.1000000E+01
           4
 -0.3625341E-01  0.6279478E-01  0.2761679E-01   0.7050742E-05  0.1000000E+01  0.2175988E-15
  0.3625429E-01  0.6279427E-01  0.2761679E-01   0.7050742E-05  0.1000000E+01  0.2175988E-15
  0.3625429E-01  0.6279427E-01 -0.2761679E-01   0.7050742E-05  0.1000000E+01  0.2175988E-15
 -0.3625341E-01  0.6279478E-01 -0.2761679E-01   0.7050742E-05  0.1000000E+01  0.2175988E-15
           4
  0.3625341E-01 -0.6279478E-01  0.2761679E-01   0.8660254E+00 -0.5000000E+00 -0.3248541E-15
  0.3625341E-01 -0.6279478E-01 -0.2761679E-01   0.8660254E+00 -0.5000000E+00 -0.3248541E-15
  0.7250858E-01  0.1022980E-05 -0.2761679E-01   0.8660254E+00 -0.5000000E+00 -0.3248541E-15
  0.7250858E-01  0.1022980E-05  0.2761679E-01   0.8660254E+00 -0.5000000E+00 -0.3248541E-15
           4
  0.7250858E-01  0.1022980E-05  0.2761679E-01   0.8660219E+00  0.5000061E+00  0.1082887E-15
  0.7250858E-01  0.1022980E-05 -0.2761679E-01   0.8660219E+00  0.5000061E+00  0.1082887E-15
  0.3625429E-01  0.6279427E-01 -0.2761679E-01   0.8660219E+00  0.5000061E+00  0.1082887E-15
  0.3625429E-01  0.6279427E-01  0.2761679E-01   0.8660219E+00  0.5000061E+00  0.1082887E-15
 BRILLOUIN-ZONE-CONVCELL_END
 ATOMS
   42    1.5316876390    0.8998040650   11.1534982020
   16    0.0392398190    1.8179476410   12.7103729280
   16   -0.0211205680    1.7778244890    9.6083539850
   42    0.0458249900    3.5574675030   11.1263767300
   16   -1.4639488410    4.4215400580   12.7103100110
   16   -1.5287802710    4.3893104060    9.6082329070
   42   -1.5128979420    6.1730613540   11.1534090060
   16   -3.0655170350    7.0694664400   12.6938339610
   16   -3.0655841220    7.0695051500    9.6139382340
   42    4.5969734720    0.8766414630   11.1908636540
   16    3.0241859100    1.8178225910   12.7104002870
   16    3.0844531910    1.7778161370    9.6083035630
   42    3.0176091190    3.5573719360   11.1264435680
   16    1.5317857100    4.4152123550    9.5595634300
   42    1.5316343470    6.1309646960   11.1263767630
   16    0.0284386890    7.0064311300   12.7103097710
   16    0.0239347160    7.0786911230    9.6082328680
   42    7.6607139160    0.8766740360   11.1909574320
   16    6.1287897520    1.7611309640   12.7527310550
   16    6.1288782830    1.7610801740    9.6507931310
   42    6.1288720410    3.5299676480   11.1908639470
   16    4.5273912790    4.4214509760   12.7104003770
   16    4.5921719070    4.3892610080    9.6083039420
   42    4.5761696430    6.1730015490   11.1534982540
   16    3.0348099800    7.0064274580   12.7103728990
   16    3.0393774200    7.0787627340    9.6083542320
 FRAMES
1      0.0000000000    0.0000000000    0.0000000000      9.1943513310   -0.0000648270    0.0000000000
1      0.0000000000    0.0000000000    0.0000000000     -4.5972318440    7.9625094920    0.0000000000
1      0.0000000000    0.0000000000    0.0000000000      0.0000000000    0.0000000000   18.1049300050
1      0.0000000000    0.0000000000   18.1049300050      9.1943513310   -0.0000648270   18.1049300050
1      0.0000000000    0.0000000000   18.1049300050     -4.5972318440    7.9625094920   18.1049300050
1     -4.5972318440    7.9625094920    0.0000000000      4.5971194870    7.9624446650    0.0000000000
1     -4.5972318440    7.9625094920    0.0000000000     -4.5972318440    7.9625094920   18.1049300050
1     -4.5972318440    7.9625094920   18.1049300050      4.5971194870    7.9624446650   18.1049300050
1      9.1943513310   -0.0000648270    0.0000000000      4.5971194870    7.9624446650    0.0000000000
1      9.1943513310   -0.0000648270    0.0000000000      9.1943513310   -0.0000648270   18.1049300050
1      9.1943513310   -0.0000648270   18.1049300050      4.5971194870    7.9624446650   18.1049300050
1      4.5971194870    7.9624446650    0.0000000000      4.5971194870    7.9624446650   18.1049300050
